Circuit: *** SPICE deck for cell and{sch} from library Multiplier

Ignoring BSIM parameter XL
Ignoring BSIM parameter XW
Ignoring BSIM parameter XL
Ignoring BSIM parameter XW
Warning: Pd = 0 is less than W.
Warning: Ps = 0 is less than W.
Warning: Pd = 0 is less than W.
Warning: Ps = 0 is less than W.
Warning: Pd = 0 is less than W.
Warning: Ps = 0 is less than W.
Direct Newton iteration for .op point succeeded.

Date: Fri Sep 08 10:23:04 2023
Total elapsed time: 0.156 seconds.

tnom = 27
temp = 27
method = modified trap
totiter = 3983
traniter = 3970
tranpoints = 1648
accept = 1496
rejected = 152
matrix size = 9
fillins = 0
solver = Normal
Matrix Compiler1: 368 bytes object code size  0.1/0.1/[0.0]
Matrix Compiler2: 743 bytes object code size  0.1/0.1/[0.1]

