Circuit: *** SPICE deck for cell fa{sch} from library Multiplier

Ignoring BSIM parameter XL
Ignoring BSIM parameter XW
Ignoring BSIM parameter XL
Ignoring BSIM parameter XW
Warning: Pd = 0 is less than W.
Warning: Ps = 0 is less than W.
Warning: Pd = 0 is less than W.
Warning: Ps = 0 is less than W.
Warning: Pd = 0 is less than W.
Warning: Ps = 0 is less than W.
Warning: Pd = 0 is less than W.
Warning: Ps = 0 is less than W.
Direct Newton iteration for .op point succeeded.

Date: Fri Sep 08 10:31:28 2023
Total elapsed time: 0.482 seconds.

tnom = 27
temp = 27
method = modified trap
totiter = 9132
traniter = 9097
tranpoints = 2955
accept = 2419
rejected = 536
matrix size = 31
fillins = 4
solver = Normal
Matrix Compiler1: 3.23 KB object code size  0.8/0.5/[0.3]
Matrix Compiler2: 3.80 KB object code size  0.4/1.7/[0.3]

