Circuit: *** SPICE deck for cell ha{sch} from library Multiplier

Ignoring BSIM parameter XL
Ignoring BSIM parameter XW
Ignoring BSIM parameter XL
Ignoring BSIM parameter XW
Warning: Pd = 0 is less than W.
Warning: Ps = 0 is less than W.
Warning: Pd = 0 is less than W.
Warning: Ps = 0 is less than W.
Warning: Pd = 0 is less than W.
Warning: Ps = 0 is less than W.
Warning: Pd = 0 is less than W.
Warning: Ps = 0 is less than W.
Direct Newton iteration for .op point succeeded.

Date: Fri Sep 08 10:24:44 2023
Total elapsed time: 0.213 seconds.

tnom = 27
temp = 27
method = modified trap
totiter = 6153
traniter = 6120
tranpoints = 2041
accept = 1770
rejected = 271
matrix size = 16
fillins = 0
solver = Normal
Matrix Compiler1: 1.21 KB object code size  0.3/0.2/[0.1]
Matrix Compiler2: off  [0.2]/0.6/0.3

