Circuit: *** SPICE deck for cell MULL{sch} from library Multiplier

Ignoring BSIM parameter XL
Ignoring BSIM parameter XW
Ignoring BSIM parameter XL
Ignoring BSIM parameter XW
Warning: Pd = 0 is less than W.
Warning: Ps = 0 is less than W.
Warning: Pd = 0 is less than W.
Warning: Ps = 0 is less than W.
Warning: Pd = 0 is less than W.
Warning: Ps = 0 is less than W.
Warning: Pd = 0 is less than W.
Warning: Ps = 0 is less than W.
Direct Newton iteration for .op point succeeded.

Date: Fri Sep 08 17:35:48 2023
Total elapsed time: 14.667 seconds.

tnom = 27
temp = 27
method = modified trap
totiter = 38736
traniter = 38700
tranpoints = 11373
accept = 8633
rejected = 2740
matrix size = 290
fillins = 418
solver = Normal
Thread vector: 999.5/373.0[8] 150.1/81.9[8] 36.6/31.6[3] 12.2/9.4[2]  2592/500
Matrix Compiler1: 69.49 KB object code size  54.7/41.8/[17.7]
Matrix Compiler2: off  [20.3]/37.1/22.6

