Circuit: *** SPICE deck for cell or{sch} from library Multiplier

Ignoring BSIM parameter XL
Ignoring BSIM parameter XW
Ignoring BSIM parameter XL
Ignoring BSIM parameter XW
Warning: Pd = 0 is less than W.
Warning: Ps = 0 is less than W.
Warning: Pd = 0 is less than W.
Warning: Ps = 0 is less than W.
Warning: Pd = 0 is less than W.
Warning: Ps = 0 is less than W.
Direct Newton iteration for .op point succeeded.

Date: Fri Sep 08 10:20:03 2023
Total elapsed time: 0.127 seconds.

tnom = 27
temp = 27
method = modified trap
totiter = 4774
traniter = 4760
tranpoints = 1989
accept = 1717
rejected = 272
matrix size = 9
fillins = 0
solver = Normal
Matrix Compiler1: 368 bytes object code size  0.1/0.1/[0.0]
Matrix Compiler2: 783 bytes object code size  0.1/0.2/[0.1]

