Circuit: *** SPICE deck for cell xor{sch} from library Multiplier

Ignoring BSIM parameter XL
Ignoring BSIM parameter XW
Ignoring BSIM parameter XL
Ignoring BSIM parameter XW
Warning: Pd = 0 is less than W.
Warning: Ps = 0 is less than W.
Warning: Pd = 0 is less than W.
Warning: Ps = 0 is less than W.
Direct Newton iteration for .op point succeeded.

Date: Fri Sep 08 10:08:36 2023
Total elapsed time: 0.143 seconds.

tnom = 27
temp = 27
method = modified trap
totiter = 4293
traniter = 4286
tranpoints = 1772
accept = 1617
rejected = 155
matrix size = 9
fillins = 0
solver = Normal
Matrix Compiler1: 574 bytes object code size  0.2/0.1/[0.0]
Matrix Compiler2: 895 bytes object code size  0.1/0.1/[0.1]

